


<routes>
<!--    <vTypeDistribution id="vehicles">
        <vType id="car1" accel="2.0" decel="4.5" sigma="0.5" color="0,1,0" length="6.5" maxSpeed="30"  guiShape="passenger" probability="0.2" />
        <vType id="car2" accel="1.8" decel="4.5" sigma="0.5" color="0,0,1" length="6.5" maxSpeed="40"  guiShape="passenger" probability="0.7" />   
        <vType id="truck" accel="1.0" decel="3.5" sigma="0.5" color="1,0,0" length="6.5" maxSpeed="25"  guiShape="truck" probability="0.1" />                
    </vTypeDistribution>   

-->
   <vType id="fixe" accel="0.8" decel="4.5" sigma="0.5" length="5" maxSpeed="0"/>
   <route id="route0" color="1,1,0" edges="gneE0"/>

<vehicle id="0" type="fixe" route="route0" depart="0" departPos="0"   color="0,1,0"/>
<vehicle id="1" type="fixe" route="route0" depart="0" departPos="300"   color="0,1,0"/>
<vehicle id="2" type="fixe" route="route0" depart="0" departPos="600"   color="0,1,0"/>
<vehicle id="3" type="fixe" route="route0" depart="0" departPos="900"   color="0,1,0"/>
<vehicle id="4" type="fixe" route="route0" depart="0" departPos="1200"   color="0,1,0"/>
<vehicle id="5" type="fixe" route="route0" depart="0" departPos="1500"   color="0,1,0"/>
<vehicle id="6" type="fixe" route="route0" depart="0" departPos="1800"   color="0,1,0"/>
<vehicle id="7" type="fixe" route="route0" depart="0" departPos="2100"   color="0,1,0"/>
<vehicle id="8" type="fixe" route="route0" depart="0" departPos="2400"   color="0,1,0"/>
<vehicle id="9" type="fixe" route="route0" depart="0" departPos="2700"   color="0,1,0"/>
<vehicle id="10" type="fixe" route="route0" depart="0" departPos="3000"   color="0,1,0"/>
<vehicle id="11" type="fixe" route="route0" depart="0" departPos="3300"   color="0,1,0"/>
<vehicle id="12" type="fixe" route="route0" depart="0" departPos="3600"   color="0,1,0"/>
<vehicle id="13" type="fixe" route="route0" depart="0" departPos="3900"   color="0,1,0"/>
<vehicle id="14" type="fixe" route="route0" depart="0" departPos="4200"   color="0,1,0"/>
<vehicle id="15" type="fixe" route="route0" depart="0" departPos="4500"   color="0,1,0"/>
<vehicle id="16" type="fixe" route="route0" depart="0" departPos="4800"   color="0,1,0"/>

<!--
   <flow id="0" type="vehicles" depart="0"  begin="0" end="100" vehsPerHour="1600">
         <route  color="1,1,0" edges="gneE0"/>
   </flow>
   <flow id="1" type="vehicles" depart="0"  begin="0" end="100" vehsPerHour="1400">
         <route  color="1,1,0" edges="-gneE0"/>  
    </flow>
-->
</routes>
