<?xml version="1.0" encoding="UTF-8"?>

<!-- generated on mar. 07 juin 2016 17:16:25 CEST by Netedit Version 0.25.0
<?xml version="1.0" encoding="UTF-8"?>

<configuration xmlns:xsi="http://www.w3.org/2001/XMLSchema-instance" xsi:noNamespaceSchemaLocation="http://sumo.dlr.de/xsd/netedit.exeConfiguration.xsd">

    <input>
        <sumo-net-file value="/home/florent/Projets/rif/iTETRIS_Platform_0.2.0/fog-app/network/highway.net.xml"/>
    </input>

    <output>
        <output-file value="/home/florent/Projets/rif/iTETRIS_Platform_0.2.0/fog-app/network/highway.net.xml"/>
    </output>

    <processing>
        <no-internal-links value="true"/>
        <no-turnarounds value="true"/>
        <offset.disable-normalization value="true"/>
        <lefthand value="false"/>
        <junctions.corner-detail value="0"/>
    </processing>

</configuration>
-->

<net version="0.25" xmlns:xsi="http://www.w3.org/2001/XMLSchema-instance" xsi:noNamespaceSchemaLocation="http://sumo.dlr.de/xsd/net_file.xsd">

    <location netOffset="0.00,0.00" convBoundary="0.00,50.00,10000.00,50.00" origBoundary="-10000000000.00,-10000000000.00,10000000000.00,10000000000.00" projParameter="!"/>

    <edge id="-gneE0" from="gneJ1" to="gneJ0" priority="1">
        <lane id="-gneE0_0" index="0" speed="33.00" length="10000.00" shape="10000.00,54.95 0.00,54.95"/>
        <lane id="-gneE0_1" index="1" speed="33.00" length="10000.00" shape="10000.00,51.65 0.00,51.65"/>
    </edge>
    <edge id="gneE0" from="gneJ0" to="gneJ1" priority="1">
        <lane id="gneE0_0" index="0" speed="33.00" length="10000.00" shape="0.00,45.05 10000.00,45.05"/>
        <lane id="gneE0_1" index="1" speed="33.00" length="10000.00" shape="0.00,48.35 10000.00,48.35"/>
    </edge>

    <junction id="gneJ0" type="unregulated" x="0.00" y="50.00" incLanes="-gneE0_0 -gneE0_1" intLanes="" shape="0.00,49.95 0.00,43.45 0.00,56.55 0.00,50.05"/>
    <junction id="gneJ1" type="unregulated" x="10000.00" y="50.00" incLanes="gneE0_0 gneE0_1" intLanes="" shape="10000.00,50.05 10000.00,56.55 10000.00,43.45 10000.00,49.95"/>

</net>
